grids/BRB/Circuits.txt
fbus tbus	r	    x	     b	     rateA	 rateB	 rateC	 ratio	 angle	 status angmin	angmax
26	 28	    0.006	0.021	 0.004	 148	 148	 148	 0.0	 0.0	 1      -30.0	30.0
28	 27	    0.006	0.021	 0.004	 148	 148	 148	 0.0	 0.0	 1      -30.0	30.0
29	 27	    0.008	0.029	 0.005	 148	 148	 148	 0.0	 0.0	 1      -30.0	30.0
8	 29	    0.008	0.029	 0.005	 148	 148	 148	 0.0	 0.0	 1      -30.0	30.0
26	 30	    0.012	0.051	 0.010	 148	 148	 148	 0.0	 0.0	 1      -30.0	30.0
30	 2	    0.012	0.051	 0.010	 148	 148	 148	 0.0	 0.0	 1      -30.0	30.0